This is the first file in Main branch.
New line.
